examples/capabilities/uvm/South_D1_Alburgh_mod_tesp_v2.glm
#set relax_naming_rules=1

#set profiler=1

#define VSOURCE=66395.3


clock {
	timezone EST+5EDT;
	stoptime '2000-01-01 0:00:00';
	timestamp '2000-01-01 0:00:00';
}

module powerflow {
	solver_method NR;
	line_capacitance TRUE;
	line_limits false;
};

module generators;

module tape;

module reliability {
	report_event_log false;
};

object regulator_configuration {
	name "rcon_fakeregulator_a";
	connect_type WYE_WYE;
	Control MANUAL;
	current_transducer_ratio 5.000000;
	power_transducer_ratio 221.316670;
	dwell_time 15.000000;
	raise_taps 500;
	lower_taps 500;
	regulation 0.100000;
	Type B;
	compensator_r_setting_A 0.000000;
	compensator_x_setting_A 0.000000;
	tap_pos_A 0;
}

object regulator_configuration {
	name "rcon_volt_34_a";
	connect_type WYE_WYE;
	Control MANUAL;
	current_transducer_ratio 1750.000000;
	power_transducer_ratio 60.000000;
	dwell_time 15.000000;
	raise_taps 500;
	lower_taps 500;
	regulation 0.100000;
	Type B;
	compensator_r_setting_A 0.000000;
	compensator_r_setting_B 0.000000;
	compensator_r_setting_C 0.000000;
	compensator_x_setting_A 0.000000;
	compensator_x_setting_B 0.000000;
	compensator_x_setting_C 0.000000;
	tap_pos_A 0;
	tap_pos_B 0;
	tap_pos_C 0;
}

object regulator_configuration {
	name "rcon_volt_119_c";
	connect_type WYE_WYE;
	Control MANUAL;
	current_transducer_ratio 1640.000000;
	power_transducer_ratio 60.000000;
	dwell_time 15.000000;
	raise_taps 500;
	lower_taps 500;
	regulation 0.100000;
	Type B;
	compensator_r_setting_C 0.000000;
	compensator_x_setting_C 0.000000;
	tap_pos_C 0;
}

object regulator_configuration {
	name "rcon_volt_94_c";
	connect_type WYE_WYE;
	Control MANUAL;
	current_transducer_ratio 1640.000000;
	power_transducer_ratio 60.000000;
	dwell_time 15.000000;
	raise_taps 500;
	lower_taps 500;
	regulation 0.100000;
	Type B;
	compensator_r_setting_C 0.000000;
	compensator_x_setting_C 0.000000;
	tap_pos_C 0;
}

object regulator_configuration {
	name "rcon_volt_87_a";
	connect_type WYE_WYE;
	Control MANUAL;
	current_transducer_ratio 1250.000000;
	power_transducer_ratio 60.000000;
	dwell_time 15.000000;
	raise_taps 500;
	lower_taps 500;
	regulation 0.100000;
	Type B;
	compensator_r_setting_A 0.000000;
	compensator_r_setting_B 0.000000;
	compensator_r_setting_C 0.000000;
	compensator_x_setting_A 0.000000;
	compensator_x_setting_B 0.000000;
	compensator_x_setting_C 0.000000;
	tap_pos_A 0;
	tap_pos_B 0;
	tap_pos_C 0;
}

object regulator_configuration {
	name "rcon_volt_102_b";
	connect_type WYE_WYE;
	Control MANUAL;
	current_transducer_ratio 1640.000000;
	power_transducer_ratio 60.000000;
	dwell_time 15.000000;
	raise_taps 500;
	lower_taps 500;
	regulation 0.100000;
	Type B;
	compensator_r_setting_B 0.000000;
	compensator_x_setting_B 0.000000;
	tap_pos_B 0;
}

object regulator_configuration {
	name "rcon_fakeregulator_b";
	connect_type WYE_WYE;
	Control MANUAL;
	current_transducer_ratio 5.000000;
	power_transducer_ratio 221.316670;
	dwell_time 15.000000;
	raise_taps 500;
	lower_taps 500;
	regulation 0.100000;
	Type B;
	compensator_r_setting_B 0.000000;
	compensator_x_setting_B 0.000000;
	tap_pos_B 0;
}

object regulator_configuration {
	name "rcon_volt_35_c";
	connect_type WYE_WYE;
	Control MANUAL;
	current_transducer_ratio 1750.000000;
	power_transducer_ratio 60.000000;
	dwell_time 15.000000;
	raise_taps 500;
	lower_taps 500;
	regulation 0.100000;
	Type B;
	compensator_r_setting_C 0.000000;
	compensator_x_setting_C 0.000000;
	tap_pos_C 0;
}

object regulator_configuration {
	name "rcon_volt_59_c";
	connect_type WYE_WYE;
	Control MANUAL;
	current_transducer_ratio 3000.000000;
	power_transducer_ratio 60.000000;
	dwell_time 15.000000;
	raise_taps 500;
	lower_taps 500;
	regulation 0.100000;
	Type B;
	compensator_r_setting_C 0.000000;
	compensator_x_setting_C 0.000000;
	tap_pos_C 0;
}

object regulator_configuration {
	name "rcon_volt_59_a";
	connect_type WYE_WYE;
	Control MANUAL;
	current_transducer_ratio 3000.000000;
	power_transducer_ratio 60.000000;
	dwell_time 15.000000;
	raise_taps 500;
	lower_taps 500;
	regulation 0.100000;
	Type B;
	compensator_r_setting_A 0.000000;
	compensator_x_setting_A 0.000000;
	tap_pos_A 0;
}

object regulator_configuration {
	name "rcon_fakeregulator_c";
	connect_type WYE_WYE;
	Control MANUAL;
	current_transducer_ratio 5.000000;
	power_transducer_ratio 221.316670;
	dwell_time 15.000000;
	raise_taps 500;
	lower_taps 500;
	regulation 0.100000;
	Type B;
	compensator_r_setting_C 0.000000;
	compensator_x_setting_C 0.000000;
	tap_pos_C 0;
}

object regulator_configuration {
	name "rcon_reg-29984_a";
	connect_type WYE_WYE;
	Control MANUAL;
	current_transducer_ratio 1640.000000;
	power_transducer_ratio 60.000000;
	dwell_time 15.000000;
	raise_taps 500;
	lower_taps 500;
	regulation 0.100000;
	Type B;
	compensator_r_setting_A 0.000000;
	compensator_r_setting_B 0.000000;
	compensator_r_setting_C 0.000000;
	compensator_x_setting_A 0.000000;
	compensator_x_setting_B 0.000000;
	compensator_x_setting_C 0.000000;
	tap_pos_A 0;
	tap_pos_B 0;
	tap_pos_C 0;
}

object regulator_configuration {
	name "rcon_volt_86_c";
	connect_type WYE_WYE;
	Control MANUAL;
	current_transducer_ratio 1250.000000;
	power_transducer_ratio 60.000000;
	dwell_time 15.000000;
	raise_taps 500;
	lower_taps 500;
	regulation 0.100000;
	Type B;
	compensator_r_setting_C 0.000000;
	compensator_x_setting_C 0.000000;
	tap_pos_C 0;
}

object regulator_configuration {
	name "rcon_volt_59_b";
	connect_type WYE_WYE;
	Control MANUAL;
	current_transducer_ratio 3000.000000;
	power_transducer_ratio 60.000000;
	dwell_time 15.000000;
	raise_taps 500;
	lower_taps 500;
	regulation 0.100000;
	Type B;
	compensator_r_setting_B 0.000000;
	compensator_x_setting_B 0.000000;
	tap_pos_B 0;
}

object regulator_configuration {
	name "rcon_volt_88_b";
	connect_type WYE_WYE;
	Control MANUAL;
	current_transducer_ratio 1250.000000;
	power_transducer_ratio 60.000000;
	dwell_time 15.000000;
	raise_taps 500;
	lower_taps 500;
	regulation 0.100000;
	Type B;
	compensator_r_setting_B 0.000000;
	compensator_x_setting_B 0.000000;
	tap_pos_B 0;
}

object regulator {
	name "reg_fakeregulator_a";
	from "internalsouth_d1_alburgh";
	to "south_d1_alburgh";
	phases A;
	configuration "rcon_fakeregulator_a";
	continuous_rating_A 11000.00;
	emergency_rating_A 15000.00;
}

object regulator {
	name "reg_volt_34_a";
	from "span_41304";
	to "volt_34";
	phases ABC;
	configuration "rcon_volt_34_a";
	continuous_rating_A 55.00;
	continuous_rating_B 55.00;
	continuous_rating_C 55.00;
	emergency_rating_A 75.00;
	emergency_rating_B 75.00;
	emergency_rating_C 75.00;
}

object regulator {
	name "reg_volt_119_c";
	from "span_223638";
	to "volt_119";
	phases C;
	configuration "rcon_volt_119_c";
	continuous_rating_C 1.53;
	emergency_rating_C 2.08;
}

object regulator {
	name "reg_volt_94_c";
	from "span_17349";
	to "volt_94";
	phases C;
	configuration "rcon_volt_94_c";
	continuous_rating_C 360.80;
	emergency_rating_C 492.00;
}

object regulator {
	name "reg_volt_87_a";
	from "span_223538";
	to "volt_87";
	phases ABC;
	configuration "rcon_volt_87_a";
	continuous_rating_A 80.30;
	continuous_rating_B 80.30;
	continuous_rating_C 80.30;
	emergency_rating_A 109.51;
	emergency_rating_B 109.51;
	emergency_rating_C 109.51;
}

object regulator {
	name "reg_volt_102_b";
	from "span_17349";
	to "volt_102";
	phases B;
	configuration "rcon_volt_102_b";
	continuous_rating_B 360.80;
	emergency_rating_B 492.00;
}

object regulator {
	name "reg_fakeregulator_b";
	from "internalsouth_d1_alburgh";
	to "south_d1_alburgh";
	phases B;
	configuration "rcon_fakeregulator_b";
	continuous_rating_B 11000.00;
	emergency_rating_B 15000.00;
}

object regulator {
	name "reg_volt_35_c";
	from "span_41304";
	to "volt_35";
	phases C;
	configuration "rcon_volt_35_c";
	continuous_rating_C 165.00;
	emergency_rating_C 225.00;
}

object regulator {
	name "reg_volt_59_c";
	from "tran_87721";
	to "volt_59";
	phases C;
	configuration "rcon_volt_59_c";
	continuous_rating_C 482.90;
	emergency_rating_C 658.50;
}

object regulator {
	name "reg_volt_59_a";
	from "tran_87721";
	to "volt_59";
	phases A;
	configuration "rcon_volt_59_a";
	continuous_rating_A 482.90;
	emergency_rating_A 658.50;
}

object regulator {
	name "reg_fakeregulator_c";
	from "internalsouth_d1_alburgh";
	to "south_d1_alburgh";
	phases C;
	configuration "rcon_fakeregulator_c";
	continuous_rating_C 11000.00;
	emergency_rating_C 15000.00;
}

object regulator {
	name "reg_reg-29984_a";
	from "span_17349";
	to "reg-29984";
	phases ABC;
	configuration "rcon_reg-29984_a";
	continuous_rating_A 120.27;
	continuous_rating_B 120.27;
	continuous_rating_C 120.27;
	emergency_rating_A 164.01;
	emergency_rating_B 164.01;
	emergency_rating_C 164.01;
}

object regulator {
	name "reg_volt_86_c";
	from "span_223538";
	to "volt_86";
	phases C;
	configuration "rcon_volt_86_c";
	continuous_rating_C 240.90;
	emergency_rating_C 328.50;
}

object regulator {
	name "reg_volt_59_b";
	from "tran_87721";
	to "volt_59";
	phases B;
	configuration "rcon_volt_59_b";
	continuous_rating_B 482.90;
	emergency_rating_B 658.50;
}

object regulator {
	name "reg_volt_88_b";
	from "span_223538";
	to "volt_88";
	phases B;
	configuration "rcon_volt_88_b";
	continuous_rating_B 240.90;
	emergency_rating_B 328.50;
}

object line_configuration {
	name "lconpn2d1acsrdefaultohconstbB";
	z22 1.72566+1.26725j;
	c22 10.6204;
}

object line_configuration {
	name "lconpppn2d1acsrdefaultohconstabcABC";
	z11 1.72566+1.26725j;
	c11 10.6204;
	z12 0.315658+0.602602j;
	c12 0.0000;
	z13 0.315658+0.602602j;
	c13 0.0000;
	z21 0.315658+0.602602j;
	c21 0.0000;
	z22 1.72566+1.26725j;
	c22 10.6204;
	z23 0.315658+0.602602j;
	c23 0.0000;
	z31 0.315658+0.602602j;
	c31 0.0000;
	z32 0.315658+0.602602j;
	c32 0.0000;
	z33 1.72566+1.26725j;
	c33 10.6204;
}

object line_configuration {
	name "lconppp2d1acsrn2d1aaacdefaultohconstabcABC";
	z11 1.74912+1.30387j;
	c11 10.6204;
	z12 0.339116+0.639221j;
	c12 0.0000;
	z13 0.339116+0.639221j;
	c13 0.0000;
	z21 0.339116+0.639221j;
	c21 0.0000;
	z22 1.74912+1.30387j;
	c22 10.6204;
	z23 0.339116+0.639221j;
	c23 0.0000;
	z31 0.339116+0.639221j;
	c31 0.0000;
	z32 0.339116+0.639221j;
	c32 0.0000;
	z33 1.74912+1.30387j;
	c33 10.6204;
}

object line_configuration {
	name "lconpn2d1acsrdefaultohconstaA";
	z11 1.72566+1.26725j;
	c11 10.6204;
}

object line_configuration {
	name "lconpppn40d1insdefaultohconstabcABC";
	z11 0.629225+0.873694j;
	c11 11.4020;
	z12 0.187225+0.370397j;
	c12 0.0000;
	z13 0.187225+0.370397j;
	c13 0.0000;
	z21 0.187225+0.370397j;
	c21 0.0000;
	z22 0.629225+0.873694j;
	c22 11.4020;
	z23 0.187225+0.370397j;
	c23 0.0000;
	z31 0.187225+0.370397j;
	c31 0.0000;
	z32 0.187225+0.370397j;
	c32 0.0000;
	z33 0.629225+0.873694j;
	c33 11.4020;
}

object line_configuration {
	name "lconpppn4d1copperdefaultohconstabcABC";
	z11 1.69415+1.20075j;
	c11 10.7508;
	z12 0.324149+0.592083j;
	c12 0.0000;
	z13 0.324149+0.592083j;
	c13 0.0000;
	z21 0.324149+0.592083j;
	c21 0.0000;
	z22 1.69415+1.20075j;
	c22 10.7508;
	z23 0.324149+0.592083j;
	c23 0.0000;
	z31 0.324149+0.592083j;
	c31 0.0000;
	z32 0.324149+0.592083j;
	c32 0.0000;
	z33 1.69415+1.20075j;
	c33 10.7508;
}

object line_configuration {
	name "lconpppn10d1insdefaultohconstabcABC";
	z11 1.33875+1.05924j;
	c11 10.9194;
	z12 0.308751+0.513541j;
	c12 0.0000;
	z13 0.308751+0.513541j;
	c13 0.0000;
	z21 0.308751+0.513541j;
	c21 0.0000;
	z22 1.33875+1.05924j;
	c22 10.9194;
	z23 0.308751+0.513541j;
	c23 0.0000;
	z31 0.308751+0.513541j;
	c31 0.0000;
	z32 0.308751+0.513541j;
	c32 0.0000;
	z33 1.33875+1.05924j;
	c33 10.9194;
}

object line_configuration {
	name "lconpn4d1acsrdefaultohconstaA";
	z11 2.56360+1.38484j;
	c11 10.3330;
}

object line_configuration {
	name "lconppp40d1acsrn10d1acsrdefaultohconstabcABC";
	z11 0.708913+1.08218j;
	c11 12.1758;
	z12 0.263913+0.498410j;
	c12 0.0000;
	z13 0.263913+0.498410j;
	c13 0.0000;
	z21 0.263913+0.498410j;
	c21 0.0000;
	z22 0.708913+1.08218j;
	c22 12.1758;
	z23 0.263913+0.498410j;
	c23 0.0000;
	z31 0.263913+0.498410j;
	c31 0.0000;
	z32 0.263913+0.498410j;
	c32 0.0000;
	z33 0.708913+1.08218j;
	c33 12.1758;
}

object line_configuration {
	name "lconpn2d1acsrdefaultohconstcC";
	z33 1.72566+1.26725j;
	c33 10.6204;
}

object line_configuration {
	name "lconpppn4d1acsrdefaultohconstabcABC";
	z11 2.56360+1.38484j;
	c11 10.3330;
	z12 0.323595+0.725593j;
	c12 0.0000;
	z13 0.323595+0.725593j;
	c13 0.0000;
	z21 0.323595+0.725593j;
	c21 0.0000;
	z22 2.56360+1.38484j;
	c22 10.3330;
	z23 0.323595+0.725593j;
	c23 0.0000;
	z31 0.323595+0.725593j;
	c31 0.0000;
	z32 0.323595+0.725593j;
	c32 0.0000;
	z33 2.56360+1.38484j;
	c33 10.3330;
}

object line_configuration {
	name "lconpn10d1acsrdefaultohconstaA";
	z11 1.15191+1.15519j;
	c11 10.9194;
}

object line_configuration {
	name "lconpn10d1insdefaultohconstaA";
	z11 1.33875+1.05924j;
	c11 10.9194;
}

object line_configuration {
	name "lcon2d1insn2d1acsrdefaultohconstaA";
	z11 1.94566+1.17650j;
	c11 10.7508;
}

object line_configuration {
	name "lconpud2-2aldefaultugconstaA";
	z11 2.19468+1.32105j;
	c11 189.4970;
}

object line_configuration {
	name "lcon2d1acsrn2d1insdefaultohconstcC";
	z33 1.74912+1.30387j;
	c33 10.6204;
}

object line_configuration {
	name "lconpn4d1copperdefaultohconstaA";
	z11 1.69415+1.20075j;
	c11 10.7508;
}

object line_configuration {
	name "lconpnk3-#2defaultohconstaA";
	z11 0.333612+0.650773j;
	c11 10.4831;
}

object line_configuration {
	name "lconpn10d1aaacdefaultohconstaA";
	z11 1.33875+1.05924j;
	c11 10.9194;
}

object line_configuration {
	name "lconpnd3-#2defaultohconstaA";
	z11 0.333612+0.650773j;
	c11 10.4831;
}

object line_configuration {
	name "lconpud2-10d1220defaultugconstaA";
	z11 1.67124+1.20601j;
	c11 204.4739;
}

object line_configuration {
	name "lconpn10d1aaacdefaultohconstbB";
	z22 1.33875+1.05924j;
	c22 10.9194;
}

object line_configuration {
	name "lconpppn556d1acsrdefaultohconstabcABC";
	z11 0.257175+0.718340j;
	c11 12.1758;
	z12 0.0891750+0.297994j;
	c12 0.0000;
	z13 0.0891750+0.297994j;
	c13 0.0000;
	z21 0.0891750+0.297994j;
	c21 0.0000;
	z22 0.257175+0.718340j;
	c22 12.1758;
	z23 0.0891750+0.297994j;
	c23 0.0000;
	z31 0.0891750+0.297994j;
	c31 0.0000;
	z32 0.0891750+0.297994j;
	c32 0.0000;
	z33 0.257175+0.718340j;
	c33 12.1758;
}

object line_configuration {
	name "lconpud2-10d1220defaultugconstbB";
	z22 1.67124+1.20601j;
	c22 204.4739;
}

object line_configuration {
	name "lconppp556d1ald1insn336d1acsrdefaultohconstabcABC";
	z11 0.303270+0.761920j;
	c11 12.2218;
	z12 0.134270+0.323642j;
	c12 0.0000;
	z13 0.134270+0.323642j;
	c13 0.0000;
	z21 0.134270+0.323642j;
	c21 0.0000;
	z22 0.303270+0.761920j;
	c22 12.2218;
	z23 0.134270+0.323642j;
	c23 0.0000;
	z31 0.134270+0.323642j;
	c31 0.0000;
	z32 0.134270+0.323642j;
	c32 0.0000;
	z33 0.303270+0.761920j;
	c33 12.2218;
}

object line_configuration {
	name "lconpud2-2aldefaultugconstbB";
	z22 2.19468+1.32105j;
	c22 189.4970;
}

object line_configuration {
	name "lcon2d1insn6adefaultohconstaA";
	z11 1.95543+1.29623j;
	c11 10.7508;
}

object line_configuration {
	name "lconpnk3-40defaultohconstcC";
	z33 0.00532500+0.527738j;
	c33 11.2657;
}

object line_configuration {
	name "lconpppnunknownd1gsspandefaultohconstabcABC";
	z11 1.33875+1.05924j;
	c11 10.9194;
	z12 0.308751+0.513541j;
	c12 0.0000;
	z13 0.308751+0.513541j;
	c13 0.0000;
	z21 0.308751+0.513541j;
	c21 0.0000;
	z22 1.33875+1.05924j;
	c22 10.9194;
	z23 0.308751+0.513541j;
	c23 0.0000;
	z31 0.308751+0.513541j;
	c31 0.0000;
	z32 0.308751+0.513541j;
	c32 0.0000;
	z33 1.33875+1.05924j;
	c33 10.9194;
}

object line_configuration {
	name "lconpn10d1acsrdefaultohconstcC";
	z33 1.15191+1.15519j;
	c33 10.9194;
}

object line_configuration {
	name "lconpn6adefaultohconstcC";
	z33 2.53543+1.37044j;
	c33 10.2344;
}

object line_configuration {
	name "lconpn6adefaultohconstbB";
	z22 2.53543+1.37044j;
	c22 10.2345;
}

object line_configuration {
	name "lcon2d1insn6adefaultohconstcC";
	z33 1.95543+1.29623j;
	c33 10.7508;
}

object line_configuration {
	name "lconpppn559d1aaacdefaultohconstabcABC";
	z11 0.0732940+0.561725j;
	c11 12.0490;
	z12 0.0301940+0.240766j;
	c12 0.0000;
	z13 0.0301940+0.240766j;
	c13 0.0000;
	z21 0.0301940+0.240766j;
	c21 0.0000;
	z22 0.0732940+0.561725j;
	c22 12.0490;
	z23 0.0301940+0.240766j;
	c23 0.0000;
	z31 0.0301940+0.240766j;
	c31 0.0000;
	z32 0.0301940+0.240766j;
	c32 0.0000;
	z33 0.0732940+0.561725j;
	c33 12.0490;
}

object line_configuration {
	name "lconpppnunknownd1secondaryovedefaultohsecconstabcABC";
	z11 1.58042+0.672218j;
	c11 70.0531;
	z12 0.550418+0.507856j;
	c12 -23.4695;
	z13 0.550418+0.507856j;
	c13 -23.4695;
	z21 0.550418+0.507856j;
	c21 -23.4695;
	z22 1.58042+0.672218j;
	c22 70.0531;
	z23 0.550418+0.507856j;
	c23 -23.4695;
	z31 0.550418+0.507856j;
	c31 -23.4695;
	z32 0.550418+0.507856j;
	c32 -23.4695;
	z33 1.58042+0.672218j;
	c33 70.0531;
}

object line_configuration {
	name "lcon2d1insn6adefaultohconstbB";
	z22 1.95543+1.29623j;
	c22 10.7508;
}

object line_configuration {
	name "lconpn4d1acsrdefaultohconstcC";
	z33 2.56360+1.38484j;
	c33 10.3330;
}

object line_configuration {
	name "lcon2d1insn2d1acsrdefaultohconstcC";
	z33 1.94566+1.17650j;
	c33 10.7508;
}

object line_configuration {
	name "lconpud2-2aldefaultugconstcC";
	z33 2.19468+1.32105j;
	c33 189.4970;
}

object line_configuration {
	name "lconpn10d1aaacdefaultohconstcC";
	z33 1.33875+1.05924j;
	c33 10.9194;
}

object line_configuration {
	name "lcon2d1insn4d1copperdefaultohconstaA";
	z11 1.95415+1.16598j;
	c11 10.7508;
}

object line_configuration {
	name "lconpnk3-4defaultohconstbB";
	z22 0.375752+0.285561j;
	c22 11.5914;
}

object line_configuration {
	name "lconpppn40d1acsrdefaultohconstabcABC";
	z11 0.619333+0.980668j;
	c11 12.1758;
	z12 0.174333+0.396895j;
	c12 0.0000;
	z13 0.174333+0.396895j;
	c13 0.0000;
	z21 0.174333+0.396895j;
	c21 0.0000;
	z22 0.619333+0.980668j;
	c22 12.1758;
	z23 0.174333+0.396895j;
	c23 0.0000;
	z31 0.174333+0.396895j;
	c31 0.0000;
	z32 0.174333+0.396895j;
	c32 0.0000;
	z33 0.619333+0.980668j;
	c33 12.1758;
}

object line_configuration {
	name "lconppp556d1acsrn336d1acsrdefaultohconstabcABC";
	z11 0.302270+0.743988j;
	c11 12.1758;
	z12 0.134270+0.323642j;
	c12 0.0000;
	z13 0.134270+0.323642j;
	c13 0.0000;
	z21 0.134270+0.323642j;
	c21 0.0000;
	z22 0.302270+0.743988j;
	c22 12.1758;
	z23 0.134270+0.323642j;
	c23 0.0000;
	z31 0.134270+0.323642j;
	c31 0.0000;
	z32 0.134270+0.323642j;
	c32 0.0000;
	z33 0.302270+0.743988j;
	c33 12.1758;
}

object line_configuration {
	name "lconpn40d1acsrdefaultohconstbB";
	z22 0.619333+0.980668j;
	c22 12.1758;
}

object line_configuration {
	name "lcon10d1insn2d1aaacdefaultohconstaA";
	z11 1.36912+1.18492j;
	c11 10.9194;
}

object line_configuration {
	name "lconpppn40d1aaacdefaultohconstabcABC";
	z11 0.629225+0.873694j;
	c11 11.4020;
	z12 0.187225+0.370397j;
	c12 0.0000;
	z13 0.187225+0.370397j;
	c13 0.0000;
	z21 0.187225+0.370397j;
	c21 0.0000;
	z22 0.629225+0.873694j;
	c22 11.4020;
	z23 0.187225+0.370397j;
	c23 0.0000;
	z31 0.187225+0.370397j;
	c31 0.0000;
	z32 0.187225+0.370397j;
	c32 0.0000;
	z33 0.629225+0.873694j;
	c33 11.4020;
}

object line_configuration {
	name "lcon2d1insn2d1aaacdefaultohconstaA";
	z11 1.96912+1.21312j;
	c11 10.7508;
}

object line_configuration {
	name "lcon10d1insn2d1acsrdefaultohconstaA";
	z11 1.34566+1.14830j;
	c11 10.9194;
}

object line_configuration {
	name "lconpppn10d1aaacdefaultohconstabcABC";
	z11 1.33875+1.05924j;
	c11 10.9194;
	z12 0.308751+0.513541j;
	c12 0.0000;
	z13 0.308751+0.513541j;
	c13 0.0000;
	z21 0.308751+0.513541j;
	c21 0.0000;
	z22 1.33875+1.05924j;
	c22 10.9194;
	z23 0.308751+0.513541j;
	c23 0.0000;
	z31 0.308751+0.513541j;
	c31 0.0000;
	z32 0.308751+0.513541j;
	c32 0.0000;
	z33 1.33875+1.05924j;
	c33 10.9194;
}

object line_configuration {
	name "lconpn2d1insdefaultohconstbB";
	z22 1.96912+1.21312j;
	c22 10.7508;
}

object line_configuration {
	name "lcon2d1acsrn2d1aaacdefaultohconstcC";
	z33 1.74912+1.30387j;
	c33 10.6204;
}

object line_configuration {
	name "lconpppn6adefaultohconstabcABC";
	z11 2.53543+1.37044j;
	c11 10.2344;
	z12 0.325430+0.722328j;
	c12 0.0000;
	z13 0.325430+0.722328j;
	c13 0.0000;
	z21 0.325430+0.722328j;
	c21 0.0000;
	z22 2.53543+1.37044j;
	c22 10.2344;
	z23 0.325430+0.722328j;
	c23 0.0000;
	z31 0.325430+0.722328j;
	c31 0.0000;
	z32 0.325430+0.722328j;
	c32 0.0000;
	z33 2.53543+1.37044j;
	c33 10.2344;
}

object line_configuration {
	name "lconpmowugd1ugd1conductordefaultugconstaA";
	z11 1.67124+1.20601j;
	c11 204.4738;
}

object line_configuration {
	name "lconppp2d1acsrn556d1acsrdefaultohconstabcABC";
	z11 1.49918+0.962640j;
	c11 10.6204;
	z12 0.0891750+0.297994j;
	c12 0.0000;
	z13 0.0891750+0.297994j;
	c13 0.0000;
	z21 0.0891750+0.297994j;
	c21 0.0000;
	z22 1.49918+0.962640j;
	c22 10.6204;
	z23 0.0891750+0.297994j;
	c23 0.0000;
	z31 0.0891750+0.297994j;
	c31 0.0000;
	z32 0.0891750+0.297994j;
	c32 0.0000;
	z33 1.49918+0.962640j;
	c33 10.6204;
}

object line_configuration {
	name "lconpud2-10d1aldefaultugconstaA";
	z11 1.67124+1.20601j;
	c11 204.4739;
}

object line_configuration {
	name "lconpppud2-10d1aldefaultugconstabcABC";
	z11 1.72410+0.649009j;
	c11 204.4739;
	z12 0.612433+0.413694j;
	c12 0.0000;
	z13 0.612433+0.413694j;
	c13 0.0000;
	z21 0.612433+0.413694j;
	c21 0.0000;
	z22 1.72410+0.649009j;
	c22 204.4739;
	z23 0.612433+0.413694j;
	c23 0.0000;
	z31 0.612433+0.413694j;
	c31 0.0000;
	z32 0.612433+0.413694j;
	c32 0.0000;
	z33 1.72410+0.649009j;
	c33 204.4739;
}

object line_configuration {
	name "lcon2d1insn2d1acsrdefaultohconstbB";
	z22 1.94566+1.17650j;
	c22 10.7508;
}

object line_configuration {
	name "lconpud2-10d1220defaultugconstcC";
	z33 1.67124+1.20601j;
	c33 204.4739;
}

object line_configuration {
	name "lcon2d1insn2d1aaacdefaultohconstbB";
	z22 1.96912+1.21312j;
	c22 10.7508;
}

object line_configuration {
	name "lconppn4d1acsrdefaultohconstacAC";
	z11 2.56360+1.38484j;
	c11 10.3330;
	z13 0.323595+0.725593j;
	c13 0.0000;
	z31 0.323595+0.725593j;
	c31 0.0000;
	z33 2.56360+1.38484j;
	c33 10.3330;
}

object line_configuration {
	name "lconpppn10d1acsrdefaultohconstabcABC";
	z11 1.15191+1.15519j;
	c11 10.9194;
	z12 0.263913+0.498410j;
	c12 0.0000;
	z13 0.263913+0.498410j;
	c13 0.0000;
	z21 0.263913+0.498410j;
	c21 0.0000;
	z22 1.15191+1.15519j;
	c22 10.9194;
	z23 0.263913+0.498410j;
	c23 0.0000;
	z31 0.263913+0.498410j;
	c31 0.0000;
	z32 0.263913+0.498410j;
	c32 0.0000;
	z33 1.15191+1.15519j;
	c33 10.9194;
}

object line_configuration {
	name "lcon2d1insn2d1aaacdefaultohconstcC";
	z33 1.96912+1.21312j;
	c33 10.7508;
}

object line_configuration {
	name "lconpn6adefaultohconstaA";
	z11 2.53543+1.37044j;
	c11 10.2344;
}

object line_configuration {
	name "lcon6an2d1acsrdefaultohconstcC";
	z33 2.52566+1.25072j;
	c33 10.2345;
}

object line_configuration {
	name "lconpppunknownd1secondaryunddefaultugsecconstabcABC";
	z11 1.72160+0.658816j;
	c11 204.4739;
	z12 0.608992+0.409580j;
	c12 0.0000;
	z13 0.608992+0.409580j;
	c13 0.0000;
	z21 0.608992+0.409580j;
	c21 0.0000;
	z22 1.72160+0.658816j;
	c22 204.4739;
	z23 0.608992+0.409580j;
	c23 0.0000;
	z31 0.608992+0.409580j;
	c31 0.0000;
	z32 0.608992+0.409580j;
	c32 0.0000;
	z33 1.72160+0.658816j;
	c33 204.4739;
}

object line_configuration {
	name "lconpppmowugd1ugd1conductordefaultugsecconstabcABC";
	z11 1.72160+0.658817j;
	c11 204.4739;
	z12 0.608992+0.409580j;
	c12 0.0000;
	z13 0.608992+0.409580j;
	c13 0.0000;
	z21 0.608992+0.409580j;
	c21 0.0000;
	z22 1.72160+0.658817j;
	c22 204.4739;
	z23 0.608992+0.409580j;
	c23 0.0000;
	z31 0.608992+0.409580j;
	c31 0.0000;
	z32 0.608992+0.409580j;
	c32 0.0000;
	z33 1.72160+0.658817j;
	c33 204.4739;
}

object line_configuration {
	name "lconpn10d1acsrdefaultohconstbB";
	z22 1.15191+1.15519j;
	c22 10.9194;
}

object line_configuration {
	name "lconpn4d1copperdefaultohconstbB";
	z22 1.69415+1.20075j;
	c22 10.7508;
}

object line_configuration {
	name "lcon4d1acsrn2d1acsrdefaultohconstcC";
	z33 2.55566+1.26185j;
	c33 10.3330;
}

object line_configuration {
	name "lconppnunknownd1secondaryovedefaultohconstacAC";
	z11 1.33875+1.05924j;
	c11 10.9194;
	z13 0.308751+0.513541j;
	c13 0.0000;
	z31 0.308751+0.513541j;
	c31 0.0000;
	z33 1.33875+1.05924j;
	c33 10.9194;
}

object line_configuration {
	name "lconpnunknownd1primaryoverhdefaultohconstaA";
	z11 1.33875+1.05924j;
	c11 10.9194;
}

object line_configuration {
	name "lconpmowugd1ugd1conductordefaultugconstbB";
	z22 1.67124+1.20601j;
	c22 204.4739;
}

object line_configuration {
	name "lconpppud2-500mcmd1220md1ugd1cdefaultugconstabcABC";
	z11 0.463411+0.199948j;
	c11 397.8531;
	z12 0.219528+0.0108620j;
	c12 0.0000;
	z13 0.219528+0.0108620j;
	c13 0.0000;
	z21 0.219528+0.0108620j;
	c21 0.0000;
	z22 0.463411+0.199948j;
	c22 397.8531;
	z23 0.219528+0.0108620j;
	c23 0.0000;
	z31 0.219528+0.0108620j;
	c31 0.0000;
	z32 0.219528+0.0108620j;
	c32 0.0000;
	z33 0.463411+0.199948j;
	c33 397.8531;
}

object line_configuration {
	name "lcon2d1insn4d1acsrdefaultohconstcC";
	z33 1.95360+1.29949j;
	c33 10.7508;
}

object line_configuration {
	name "lconpppud2-40d1aldefaultugconstabcABC";
	z11 0.893189+0.327726j;
	c11 318.3616;
	z12 0.446198+0.150776j;
	c12 0.0000;
	z13 0.446198+0.150776j;
	c13 0.0000;
	z21 0.446198+0.150776j;
	c21 0.0000;
	z22 0.893189+0.327726j;
	c22 318.3616;
	z23 0.446198+0.150776j;
	c23 0.0000;
	z31 0.446198+0.150776j;
	c31 0.0000;
	z32 0.446198+0.150776j;
	c32 0.0000;
	z33 0.893189+0.327726j;
	c33 318.3616;
}

object line_configuration {
	name "lcon10d1insn10d1aaacdefaultohconstaA";
	z11 1.33875+1.05924j;
	c11 10.9194;
}

object line_configuration {
	name "lconpmowugd1ugd1conductordefaultugconstcC";
	z33 1.67124+1.20601j;
	c33 204.4739;
}

object line_configuration {
	name "lconpppud2-10d1220defaultugconstabcABC";
	z11 1.72410+0.649009j;
	c11 204.4739;
	z12 0.612433+0.413694j;
	c12 0.0000;
	z13 0.612433+0.413694j;
	c13 0.0000;
	z21 0.612433+0.413694j;
	c21 0.0000;
	z22 1.72410+0.649009j;
	c22 204.4739;
	z23 0.612433+0.413694j;
	c23 0.0000;
	z31 0.612433+0.413694j;
	c31 0.0000;
	z32 0.612433+0.413694j;
	c32 0.0000;
	z33 1.72410+0.649009j;
	c33 204.4739;
}

object line_configuration {
	name "lconpunknownd1primaryunderdefaultugconstaA";
	z11 1.67124+1.20601j;
	c11 204.4739;
}

object line_configuration {
	name "lconppp2d1insn2d1acsrdefaultohconstabcABC";
	z11 1.94566+1.17650j;
	c11 10.7508;
	z12 0.315658+0.602602j;
	c12 0.0000;
	z13 0.315658+0.602602j;
	c13 0.0000;
	z21 0.315658+0.602602j;
	c21 0.0000;
	z22 1.94566+1.17650j;
	c22 10.7508;
	z23 0.315658+0.602602j;
	c23 0.0000;
	z31 0.315658+0.602602j;
	c31 0.0000;
	z32 0.315658+0.602602j;
	c32 0.0000;
	z33 1.94566+1.17650j;
	c33 10.7508;
}

object line_configuration {
	name "lcon2d1acsrn6adefaultohconstcC";
	z33 1.73543+1.38697j;
	c33 10.6204;
}

object line_configuration {
	name "lconpppnunknownd1secondaryovedefaultohconstabcABC";
	z11 1.33875+1.05924j;
	c11 10.9194;
	z12 0.308751+0.513541j;
	c12 0.0000;
	z13 0.308751+0.513541j;
	c13 0.0000;
	z21 0.308751+0.513541j;
	c21 0.0000;
	z22 1.33875+1.05924j;
	c22 10.9194;
	z23 0.308751+0.513541j;
	c23 0.0000;
	z31 0.308751+0.513541j;
	c31 0.0000;
	z32 0.308751+0.513541j;
	c32 0.0000;
	z33 1.33875+1.05924j;
	c33 10.9194;
}

object line_configuration {
	name "lcon2d1insn4d1acsrdefaultohconstbB";
	z22 1.95360+1.29949j;
	c22 10.7508;
}

object line_configuration {
	name "lconpppn2d1aaacdefaultohconstabcABC";
	z11 1.96912+1.21312j;
	c11 10.6559;
	z12 0.339116+0.639221j;
	c12 0.0000;
	z13 0.339116+0.639221j;
	c13 0.0000;
	z21 0.339116+0.639221j;
	c21 0.0000;
	z22 1.96912+1.21312j;
	c22 10.6559;
	z23 0.339116+0.639221j;
	c23 0.0000;
	z31 0.339116+0.639221j;
	c31 0.0000;
	z32 0.339116+0.639221j;
	c32 0.0000;
	z33 1.96912+1.21312j;
	c33 10.6559;
}

object line_configuration {
	name "lconpnk3-#2defaultohconstcC";
	z33 0.333612+0.650773j;
	c33 10.4831;
}

object line_configuration {
	name "lconppp2d1acsrn4d1acsrdefaultohconstabcABC";
	z11 1.73360+1.39024j;
	c11 10.6204;
	z12 0.323595+0.725593j;
	c12 0.0000;
	z13 0.323595+0.725593j;
	c13 0.0000;
	z21 0.323595+0.725593j;
	c21 0.0000;
	z22 1.73360+1.39024j;
	c22 10.6204;
	z23 0.323595+0.725593j;
	c23 0.0000;
	z31 0.323595+0.725593j;
	c31 0.0000;
	z32 0.323595+0.725593j;
	c32 0.0000;
	z33 1.73360+1.39024j;
	c33 10.6204;
}

object line_configuration {
	name "lcon10d1insn10d1aaacdefaultohconstcC";
	z33 1.33875+1.05924j;
	c33 10.9194;
}

object line_configuration {
	name "lconppp40d1insnmsgrd1bared11od1052awadefaultohconstabcABC";
	z11 0.549947+0.765047j;
	c11 11.4020;
	z12 0.107947+0.261750j;
	c12 0.0000;
	z13 0.107947+0.261750j;
	c13 0.0000;
	z21 0.107947+0.261750j;
	c21 0.0000;
	z22 0.549947+0.765047j;
	c22 11.4020;
	z23 0.107947+0.261750j;
	c23 0.0000;
	z31 0.107947+0.261750j;
	c31 0.0000;
	z32 0.107947+0.261750j;
	c32 0.0000;
	z33 0.549947+0.765047j;
	c33 11.4020;
}

object line_configuration {
	name "lconppp10d1insnmsgrd1bared11od1052awadefaultohconstabcABC";
	z11 1.13795+0.807452j;
	c11 10.9194;
	z12 0.107947+0.261750j;
	c12 0.0000;
	z13 0.107947+0.261750j;
	c13 0.0000;
	z21 0.107947+0.261750j;
	c21 0.0000;
	z22 1.13795+0.807452j;
	c22 10.9194;
	z23 0.107947+0.261750j;
	c23 0.0000;
	z31 0.107947+0.261750j;
	c31 0.0000;
	z32 0.107947+0.261750j;
	c32 0.0000;
	z33 1.13795+0.807452j;
	c33 10.9194;
}

object line_configuration {
	name "lcon10d1insn6adefaultohconstaA";
	z11 1.35543+1.26803j;
	c11 10.9194;
}

object line_configuration {
	name "lcon10d1insn2d1aaacdefaultohconstcC";
	z33 1.36912+1.18492j;
	c33 10.9194;
}

object line_configuration {
	name "lconpppnk4-10defaultohsecconstabcABC";
	z11 0.385841-0.0539730j;
	c11 68.5392;
	z12 0.195841-0.00527700j;
	c12 -22.8086;
	z13 0.195841-0.00527700j;
	c13 -22.8086;
	z21 0.195841-0.00527700j;
	c21 -22.8086;
	z22 0.385841-0.0539730j;
	c22 68.5392;
	z23 0.195841-0.00527700j;
	c23 -22.8086;
	z31 0.195841-0.00527700j;
	c31 -22.8086;
	z32 0.195841-0.00527700j;
	c32 -22.8086;
	z33 0.385841-0.0539730j;
	c33 68.5392;
}

object line_configuration {
	name "lconpnunknownd1secondaryovedefaultohconstaA";
	z11 1.33875+1.05924j;
	c11 10.9194;
}

object line_configuration {
	name "lconpppud2-2aldefaultugconstabcABC";
	z11 2.33857+0.810528j;
	c11 189.4970;
	z12 0.646423+0.539321j;
	c12 0.0000;
	z13 0.646423+0.539321j;
	c13 0.0000;
	z21 0.646423+0.539321j;
	c21 0.0000;
	z22 2.33857+0.810528j;
	c22 189.4970;
	z23 0.646423+0.539321j;
	c23 0.0000;
	z31 0.646423+0.539321j;
	c31 0.0000;
	z32 0.646423+0.539321j;
	c32 0.0000;
	z33 2.33857+0.810528j;
	c33 189.4970;
}

object line_configuration {
	name "lcon10d1insn10d1aaacdefaultohconstbB";
	z22 1.33875+1.05924j;
	c22 10.9194;
}

object line_configuration {
	name "lconpn2d1aaacdefaultohconstcC";
	z33 1.96912+1.21312j;
	c33 10.6559;
}

object line_configuration {
	name "lcon40d1aaacn10d1acsrdefaultohconstbB";
	z22 0.705913+1.00171j;
	c22 11.4020;
}

object line_configuration {
	name "lconpnd3-10defaultohconstcC";
	z33 0.297947+0.603136j;
	c33 10.7945;
}

object line_configuration {
	name "lconpuk3-40defaultugconstcC";
	z33 0.230470+1.09507j;
	c33 0.0000;
}

object line_configuration {
	name "lconpppnd4-10defaultohconstabcABC";
	z11 0.297947+0.603136j;
	c11 10.7945;
	z12 0.107947+0.261750j;
	c12 0.0000;
	z13 0.107947+0.261750j;
	c13 0.0000;
	z21 0.107947+0.261750j;
	c21 0.0000;
	z22 0.297947+0.603136j;
	c22 10.7945;
	z23 0.107947+0.261750j;
	c23 0.0000;
	z31 0.107947+0.261750j;
	c31 0.0000;
	z32 0.107947+0.261750j;
	c32 0.0000;
	z33 0.297947+0.603136j;
	c33 10.7945;
}

object line_configuration {
	name "lconppn10d1acsrdefaultohconstacAC";
	z11 1.15191+1.15519j;
	c11 10.9194;
	z13 0.263913+0.498410j;
	c13 0.0000;
	z31 0.263913+0.498410j;
	c31 0.0000;
	z33 1.15191+1.15519j;
	c33 10.9194;
}

object line_configuration {
	name "lconpppnunknownd1primaryoverhdefaultohconstabcABC";
	z11 1.33875+1.05924j;
	c11 10.9194;
	z12 0.308751+0.513541j;
	c12 0.0000;
	z13 0.308751+0.513541j;
	c13 0.0000;
	z21 0.308751+0.513541j;
	c21 0.0000;
	z22 1.33875+1.05924j;
	c22 10.9194;
	z23 0.308751+0.513541j;
	c23 0.0000;
	z31 0.308751+0.513541j;
	c31 0.0000;
	z32 0.308751+0.513541j;
	c32 0.0000;
	z33 1.33875+1.05924j;
	c33 10.9194;
}

object line_configuration {
	name "lconpnunknownd1primaryoverhdefaultohconstcC";
	z33 1.33875+1.05924j;
	c33 10.9194;
}

object line_configuration {
	name "lconpnunknownd1secondaryovedefaultohconstcC";
	z33 1.33875+1.05924j;
	c33 10.9194;
}

object line_configuration {
	name "lcon2d1insn4d1acsrdefaultohconstaA";
	z11 1.95360+1.29949j;
	c11 10.7508;
}

object line_configuration {
	name "lconpn2d1aaacdefaultohconstbB";
	z22 1.96912+1.21312j;
	c22 10.6559;
}

object line_configuration {
	name "lcon40d1acsrn10d1acsrdefaultohconstbB";
	z22 0.708913+1.08218j;
	c22 12.1758;
}

object line_configuration {
	name "lconpmowugd1ugd1conductordefaultugsecconstaA";
	z11 1.67124+1.20601j;
	c11 204.4738;
}

object line_configuration {
	name "lconpn2d1insdefaultohconstaA";
	z11 1.96912+1.21312j;
	c11 10.7508;
}

object line_configuration {
	name "lconppn2d1acsrdefaultohconstacAC";
	z11 1.72566+1.26725j;
	c11 10.6204;
	z13 0.315658+0.602602j;
	c13 0.0000;
	z31 0.315658+0.602602j;
	c31 0.0000;
	z33 1.72566+1.26725j;
	c33 10.6204;
}

object line_configuration {
	name "lconpnd3-#2defaultohconstcC";
	z33 0.333612+0.650773j;
	c33 10.4831;
}

object line_configuration {
	name "lconpud2-10d1aldefaultugconstbB";
	z22 1.67124+1.20601j;
	c22 204.4739;
}

object line_configuration {
	name "lconpppnd4-10defaultohsecconstabcABC";
	z11 0.385841-0.0539730j;
	c11 68.5392;
	z12 0.195841-0.00527700j;
	c12 -22.8086;
	z13 0.195841-0.00527700j;
	c13 -22.8086;
	z21 0.195841-0.00527700j;
	c21 -22.8086;
	z22 0.385841-0.0539730j;
	c22 68.5392;
	z23 0.195841-0.00527700j;
	c23 -22.8086;
	z31 0.195841-0.00527700j;
	c31 -22.8086;
	z32 0.195841-0.00527700j;
	c32 -22.8086;
	z33 0.385841-0.0539730j;
	c33 68.5392;
}

object line_configuration {
	name "lcon2d1insn10d1aaacdefaultohconstbB";
	z22 1.93875+1.08744j;
	c22 10.7508;
}

object line_configuration {
	name "lconppnd3-4defaultohconstacAC";
	z11 0.375752+0.285561j;
	c11 11.5914;
	z13 0.159432+0.147299j;
	c13 0.0000;
	z31 0.159432+0.147299j;
	c31 0.0000;
	z33 0.375752+0.285561j;
	c33 11.5914;
}

object line_configuration {
	name "lconppp40d1aaacnd2-#6defaultohconstabcABC";
	z11 0.757497+1.34312j;
	c11 11.4020;
	z12 0.315497+0.839820j;
	c12 0.0000;
	z13 0.315497+0.839820j;
	c13 0.0000;
	z21 0.315497+0.839820j;
	c21 0.0000;
	z22 0.757497+1.34312j;
	c22 11.4020;
	z23 0.315497+0.839820j;
	c23 0.0000;
	z31 0.315497+0.839820j;
	c31 0.0000;
	z32 0.315497+0.839820j;
	c32 0.0000;
	z33 0.757497+1.34312j;
	c33 11.4020;
}

object line_configuration {
	name "lconpn556d1acsrdefaultohconstcC";
	z33 0.257175+0.718340j;
	c33 12.1758;
}

object triplex_line_configuration {
	name "tcon_4/0triplex_12";
	z11 2.16454+0.880800j;
	z12 0.623542+0.673688j;
	z21 0.623542+0.673688j;
	z22 2.16454+0.880800j;
}

object transformer_configuration {
	name "xcon_cimxfmrcode_e72805103095753_bB";
	power_rating 10.000;
	powerA_rating 0.0;
	powerB_rating 10.000;
	powerC_rating 0.0;
	primary_voltage 7200.000;
	secondary_voltage 277.000;
	connect_type WYE_WYE;
	resistance 0.000001;
	reactance 0.015000;
	install_type PADMOUNT;
}

object transformer_configuration {
	name "xcon_cimxfmrcode_e72805003081251_cC";
	power_rating 10.000;
	powerA_rating 0.0;
	powerB_rating 0.0;
	powerC_rating 10.000;
	primary_voltage 7200.000;
	secondary_voltage 120.000;
	connect_type SINGLE_PHASE_CENTER_TAPPED;
	install_type POLETOP;
	resistance 0.00001;
	reactance 0.01360;
	resistance1 0.00001;
	reactance1 0.00680;
	resistance2 0.00001;
	reactance2 0.00680;
}

object transformer_configuration {
	name "xcon_cimxfmrcode_e72805103080044_cC";
	power_rating 10.000;
	powerA_rating 0.0;
	powerB_rating 0.0;
	powerC_rating 10.000;
	primary_voltage 7200.000;
	secondary_voltage 120.000;
	connect_type SINGLE_PHASE_CENTER_TAPPED;
	install_type POLETOP;
	resistance 0.00001;
	reactance 0.01360;
	resistance1 0.00001;
	reactance1 0.00680;
	resistance2 0.00001;
	reactance2 0.00680;
}

object transformer_configuration {
	name "xcon_cimxfmrcode_e72805203079428_bB";
	power_rating 15.000;
	powerA_rating 0.0;
	powerB_rating 15.000;
	powerC_rating 0.0;
	primary_voltage 7200.000;
	secondary_voltage 120.000;
	connect_type SINGLE_PHASE_CENTER_TAPPED;
	install_type POLETOP;
	resistance 0.00001;
	reactance 0.01360;
	resistance1 0.00001;
	reactance1 0.00680;
	resistance2 0.00001;
	reactance2 0.00680;
}

object transformer_configuration {
	name "xcon_cimxfmrcode_e72805203079037_bB";
	power_rating 10.000;
	powerA_rating 0.0;
	powerB_rating 10.000;
	powerC_rating 0.0;
	primary_voltage 7200.000;
	secondary_voltage 120.000;
	connect_type SINGLE_PHASE_CENTER_TAPPED;
	install_type POLETOP;
	resistance 0.00001;
	reactance 0.01360;
	resistance1 0.00001;
	reactance1 0.00680;
	resistance2 0.00001;
	reactance2 0.00680;
}

object transformer_configuration {
	name "xcon_cimxfmrcode_e72805203080376_bB";
	power_rating 10.000;
	powerA_rating 0.0;
	powerB_rating 10.000;
	powerC_rating 0.0;
	primary_voltage 7200.000;
	secondary_voltage 277.000;
	connect_type WYE_WYE;
	resistance 0.000001;
	reactance 0.015000;
	install_type PADMOUNT;
}

object transformer_configuration {
	name "xcon_cimxfmrcode_e72805200040354_bB";
	power_rating 10.000;
	powerA_rating 0.0;
	powerB_rating 10.000;
	powerC_rating 0.0;
	primary_voltage 7200.000;
	secondary_voltage 120.000;
	connect_type SINGLE_PHASE_CENTER_TAPPED;
	install_type POLETOP;
	resistance 0.00001;
	reactance 0.01360;
	resistance1 0.00001;
	reactance1 0.00680;
	resistance2 0.00001;
	reactance2 0.00680;
}

object transformer_configuration {
	name "xcon_cimxfmrcode_e72805203078872_bB";
	power_rating 15.000;
	powerA_rating 0.0;
	powerB_rating 15.000;
	powerC_rating 0.0;
	primary_voltage 7200.000;
	secondary_voltage 120.000;
	connect_type SINGLE_PHASE_CENTER_TAPPED;
	install_type POLETOP;
	resistance 0.00001;
	reactance 0.01360;
	resistance1 0.00001;
	reactance1 0.00680;
	resistance2 0.00001;
	reactance2 0.00680;
}

object transformer_configuration {
	name "xcon_cimxfmrcode_e72805203079253_cC";
	power_rating 10.000;
	powerA_rating 0.0;
	powerB_rating 0.0;
	powerC_rating 10.000;
	primary_voltage 7200.000;
	secondary_voltage 120.000;
	connect_type SINGLE_PHASE_CENTER_TAPPED;
	install_type POLETOP;
	resistance 0.00001;
	reactance 0.01360;
	resistance1 0.00001;
	reactance1 0.00680;
	resistance2 0.00001;
	reactance2 0.00680;
}

object transformer_configuration {
	name "xcon_cimxfmrcode_e72805203079036_bB";
	power_rating 10.000;
	powerA_rating 0.0;
	powerB_rating 10.000;
	powerC_rating 0.0;
	primary_voltage 7200.000;
	secondary_voltage 120.000;
	connect_type SINGLE_PHASE_CENTER_TAPPED;
	install_type POLETOP;
	resistance 0.00001;
	reactance 0.01360;
	resistance1 0.00001;
	reactance1 0.00680;
	resistance2 0.00001;
	reactance2 0.00680;
}

object transformer_configuration {
	name "xcon_cimxfmrcode_e72805103080141_bB";
	power_rating 15.000;
	powerA_rating 0.0;
	powerB_rating 15.000;
	powerC_rating 0.0;
	primary_voltage 7200.000;
	secondary_voltage 120.000;
	connect_type SINGLE_PHASE_CENTER_TAPPED;
	install_type POLETOP;
	resistance 0.00001;
	reactance 0.01360;
	resistance1 0.00001;
	reactance1 0.00680;
	resistance2 0.00001;
	reactance2 0.00680;
}

object transformer_configuration {
	name "xcon_cimxfmrcode_e72805203095872_bB";
	power_rating 10.000;
	powerA_rating 0.0;
	powerB_rating 10.000;
	powerC_rating 0.0;
	primary_voltage 7200.000;
	secondary_voltage 120.000;
	connect_type SINGLE_PHASE_CENTER_TAPPED;
	install_type POLETOP;
	resistance 0.00001;
	reactance 0.01360;
	resistance1 0.00001;
	reactance1 0.00680;
	resistance2 0.00001;
	reactance2 0.00680;
}

object transformer_configuration {
	name "xcon_cimxfmrcode_e72805203078744_cC";
	power_rating 10.000;
	powerA_rating 0.0;
	powerB_rating 0.0;
	powerC_rating 10.000;
	primary_voltage 7200.000;
	secondary_voltage 120.000;
	connect_type SINGLE_PHASE_CENTER_TAPPED;
	install_type POLETOP;
	resistance 0.00001;
	reactance 0.01360;
	resistance1 0.00001;
	reactance1 0.00680;
	resistance2 0.00001;
	reactance2 0.00680;
}

object transformer_configuration {
	name "xcon_cimxfmrcode_e72805200042331_aA";
	power_rating 10.000;
	powerA_rating 10.000;
	powerB_rating 0.0;
	powerC_rating 0.0;
	primary_voltage 7200.000;
	secondary_voltage 120.000;
	connect_type SINGLE_PHASE_CENTER_TAPPED;
	install_type POLETOP;
	resistance 0.00001;
	reactance 0.01360;
	resistance1 0.00001;
	reactance1 0.00680;
	resistance2 0.00001;
	reactance2 0.00680;
}

object transformer_configuration {
	name "xcon_cimxfmrcode_e72805203080311_bB";
	power_rating 50.000;
	powerA_rating 0.0;
	powerB_rating 50.000;
	powerC_rating 0.0;
	primary_voltage 7200.000;
	secondary_voltage 277.000;
	connect_type WYE_WYE;
	resistance 0.000001;
	reactance 0.015000;
	install_type PADMOUNT;
}

object transformer_configuration {
	name "xcon_cimxfmrcode_e72805203079473_bB";
	power_rating 10.000;
	powerA_rating 0.0;
	powerB_rating 10.000;
	powerC_rating 0.0;
	primary_voltage 7200.000;
	secondary_voltage 120.000;
	connect_type SINGLE_PHASE_CENTER_TAPPED;
	install_type POLETOP;
	resistance 0.00001;
	reactance 0.01360;
	resistance1 0.00001;
	reactance1 0.00680;
	resistance2 0.00001;
	reactance2 0.00680;
}

object transformer_configuration {
	name "xcon_cimxfmrcode_e72805203079308_cC";
	power_rating 10.000;
	powerA_rating 0.0;
	powerB_rating 0.0;
	powerC_rating 10.000;
	primary_voltage 7200.000;
	secondary_voltage 120.000;
	connect_type SINGLE_PHASE_CENTER_TAPPED;
	install_type POLETOP;
	resistance 0.00001;
	reactance 0.01360;
	resistance1 0.00001;
	reactance1 0.00680;
	resistance2 0.00001;
	reactance2 0.00680;
}

object transformer_configuration {
	name "xcon_cimxfmrcode_e72805003081109_bB";
	power_rating 15.000;
	powerA_rating 0.0;
	powerB_rating 15.000;
	powerC_rating 0.0;
	primary_voltage 7200.000;
	secondary_voltage 120.000;
	connect_type SINGLE_PHASE_CENTER_TAPPED;
	install_type POLETOP;
	resistance 0.00001;
	reactance 0.01360;
	resistance1 0.00001;
	reactance1 0.00680;
	resistance2 0.00001;
	reactance2 0.00680;
}

object transformer_configuration {
	name "xcon_cimxfmrcode_e72805203078758_cC";
	power_rating 25.000;
	powerA_rating 0.0;
	powerB_rating 0.0;
	powerC_rating 25.000;
	primary_voltage 7200.000;
	secondary_voltage 120.000;
	connect_type SINGLE_PHASE_CENTER_TAPPED;
	install_type POLETOP;
	resistance 0.00001;
	reactance 0.01360;
	resistance1 0.00001;
	reactance1 0.00680;
	resistance2 0.00001;
	reactance2 0.00680;
}

object transformer_configuration {
	name "xcon_cimxfmrcode_e72805103079931_aA";
	power_rating 10.000;
	powerA_rating 10.000;
	powerB_rating 0.0;
	powerC_rating 0.0;
	primary_voltage 7200.000;
	secondary_voltage 120.000;
	connect_type SINGLE_PHASE_CENTER_TAPPED;
	install_type POLETOP;
	resistance 0.00001;
	reactance 0.01360;
	resistance1 0.00001;
	reactance1 0.00680;
	resistance2 0.00001;
	reactance2 0.00680;
}

object transformer_configuration {
	name "xcon_cimxfmrcode_e72805203095833_cC";
	power_rating 10.000;
	powerA_rating 0.0;
	powerB_rating 0.0;
	powerC_rating 10.000;
	primary_voltage 7200.000;
	secondary_voltage 120.000;
	connect_type SINGLE_PHASE_CENTER_TAPPED;
	install_type POLETOP;
	resistance 0.00001;
	reactance 0.01360;
	resistance1 0.00001;
	reactance1 0.00680;
	resistance2 0.00001;
	reactance2 0.00680;
}

object transformer_configuration {
	name "xcon_cimxfmrcode_e72805003081295_bB";
	power_rating 10.000;
	powerA_rating 0.0;
	powerB_rating 10.000;
	powerC_rating 0.0;
	primary_voltage 7200.000;
	secondary_voltage 120.000;
	connect_type SINGLE_PHASE_CENTER_TAPPED;
	install_type POLETOP;
	resistance 0.00001;
	reactance 0.01360;
	resistance1 0.00001;
	reactance1 0.00680;
	resistance2 0.00001;
	reactance2 0.00680;
}

object transformer_configuration {
	name "xcon_cimxfmrcode_e72805103080091_aA";
	power_rating 25.000;
	powerA_rating 25.000;
	powerB_rating 0.0;
	powerC_rating 0.0;
	primary_voltage 7200.000;
	secondary_voltage 120.000;
	connect_type SINGLE_PHASE_CENTER_TAPPED;
	install_type POLETOP;
	resistance 0.00001;
	reactance 0.01360;
	resistance1 0.00001;
	reactance1 0.00680;
	resistance2 0.00001;
	reactance2 0.00680;
}

object transformer_configuration {
	name "xcon_cimxfmrcode_e72805203079563_cC";
	power_rating 100.000;
	powerA_rating 0.0;
	powerB_rating 0.0;
	powerC_rating 100.000;
	primary_voltage 7200.000;
	secondary_voltage 120.000;
	connect_type SINGLE_PHASE_CENTER_TAPPED;
	install_type POLETOP;
	resistance 0.00001;
	reactance 0.01360;
	resistance1 0.00001;
	reactance1 0.00680;
	resistance2 0.00001;
	reactance2 0.00680;
}

object transformer_configuration {
	name "xcon_cimxfmrcode_e103h_d1_59_cC";
	power_rating 10.000;
	powerA_rating 0.0;
	powerB_rating 0.0;
	powerC_rating 10.000;
	primary_voltage 7200.000;
	secondary_voltage 120.000;
	connect_type SINGLE_PHASE_CENTER_TAPPED;
	install_type POLETOP;
	resistance 0.00001;
	reactance 0.01360;
	resistance1 0.00001;
	reactance1 0.00680;
	resistance2 0.00001;
	reactance2 0.00680;
}

object transformer_configuration {
	name "xcon_cimxfmrcode_e72905103079956_cC";
	power_rating 10.000;
	powerA_rating 0.0;
	powerB_rating 0.0;
	powerC_rating 10.000;
	primary_voltage 7200.000;
	secondary_voltage 120.000;
	connect_type SINGLE_PHASE_CENTER_TAPPED;
	install_type POLETOP;
	resistance 0.00001;
	reactance 0.01360;
	resistance1 0.00001;
	reactance1 0.00680;
	resistance2 0.00001;
	reactance2 0.00680;
}

object transformer_configuration {
	name "xcon_cimxfmrcode_e72805203079681_bB";
	power_rating 10.000;
	powerA_rating 0.0;
	powerB_rating 10.000;
	powerC_rating 0.0;
	primary_voltage 7200.000;
	secondary_voltage 120.000;
	connect_type SINGLE_PHASE_CENTER_TAPPED;
	install_type POLETOP;
	resistance 0.00001;
	reactance 0.01360;
	resistance1 0.00001;
	reactance1 0.00680;
	resistance2 0.00001;
	reactance2 0.00680;
}

object transformer_configuration {
	name "xcon_cimxfmrcode_e72805203079508_aA";
	power_rating 15.000;
	powerA_rating 15.000;
	powerB_rating 0.0;
	powerC_rating 0.0;
	primary_voltage 7200.000;
	secondary_voltage 120.000;
	connect_type SINGLE_PHASE_CENTER_TAPPED;
	install_type POLETOP;
	resistance 0.00001;
	reactance 0.01360;
	resistance1 0.00001;
	reactance1 0.00680;
	resistance2 0.00001;
	reactance2 0.00680;
}

object transformer_configuration {
	name "xcon_cimxfmrcode_e72805003081048_aA";
	power_rating 50.000;
	powerA_rating 50.000;
	powerB_rating 0.0;
	powerC_rating 0.0;
	primary_voltage 7200.000;
	secondary_voltage 120.000;
	connect_type SINGLE_PHASE_CENTER_TAPPED;
	install_type POLETOP;
	resistance 0.00001;
	reactance 0.01360;
	resistance1 0.00001;
	reactance1 0.00680;
	resistance2 0.00001;
	reactance2 0.00680;
}

object transformer_configuration {
	name "xcon_cimxfmrcode_e72805203079175_aA";
	power_rating 10.000;
	powerA_rating 10.000;
	powerB_rating 0.0;
	powerC_rating 0.0;
	primary_voltage 7200.000;
	secondary_voltage 120.000;
	connect_type SINGLE_PHASE_CENTER_TAPPED;
	install_type POLETOP;
	resistance 0.00001;
	reactance 0.01360;
	resistance1 0.00001;
	reactance1 0.00680;
	resistance2 0.00001;
	reactance2 0.00680;
}

object transformer_configuration {
	name "xcon_cimxfmrcode_e72805203079266_cC";
	power_rating 10.000;
	powerA_rating 0.0;
	powerB_rating 0.0;
	powerC_rating 10.000;
	primary_voltage 7200.000;
	secondary_voltage 120.000;
	connect_type SINGLE_PHASE_CENTER_TAPPED;
	install_type POLETOP;
	resistance 0.00001;
	reactance 0.01360;
	resistance1 0.00001;
	reactance1 0.00680;
	resistance2 0.00001;
	reactance2 0.00680;
}

object transformer_configuration {
	name "xcon_cimxfmrcode_e72805203079442_cC";
	power_rating 10.000;
	powerA_rating 0.0;
	powerB_rating 0.0;
	powerC_rating 10.000;
	primary_voltage 7200.000;
	secondary_voltage 120.000;
	connect_type SINGLE_PHASE_CENTER_TAPPED;
	install_type POLETOP;
	resistance 0.00001;
	reactance 0.01360;
	resistance1 0.00001;
	reactance1 0.00680;
	resistance2 0.00001;
	reactance2 0.00680;
}

object transformer_configuration {
	name "xcon_cimxfmrcode_e72805103079932_cC";
	power_rating 10.000;
	powerA_rating 0.0;
	powerB_rating 0.0;
	powerC_rating 10.000;
	primary_voltage 7200.000;
	secondary_voltage 120.000;
	connect_type SINGLE_PHASE_CENTER_TAPPED;
	install_type POLETOP;
	resistance 0.00001;
	reactance 0.01360;
	resistance1 0.00001;
	reactance1 0.00680;
	resistance2 0.00001;
	reactance2 0.00680;
}

object transformer_configuration {
	name "xcon_cimxfmrcode_e72805203079539_cC";
	power_rating 10.000;
	powerA_rating 0.0;
	powerB_rating 0.0;
	powerC_rating 10.000;
	primary_voltage 7200.000;
	secondary_voltage 120.000;
	connect_type SINGLE_PHASE_CENTER_TAPPED;
	install_type POLETOP;
	resistance 0.00001;
	reactance 0.01360;
	resistance1 0.00001;
	reactance1 0.00680;
	resistance2 0.00001;
	reactance2 0.00680;
}

object transformer_configuration {
	name "xcon_cimxfmrcode_e72809603093401_cC";
	power_rating 25.000;
	powerA_rating 0.0;
	powerB_rating 0.0;
	powerC_rating 25.000;
	primary_voltage 7200.000;
	secondary_voltage 120.000;
	connect_type SINGLE_PHASE_CENTER_TAPPED;
	install_type POLETOP;
	resistance 0.00001;
	reactance 0.01360;
	resistance1 0.00001;
	reactance1 0.00680;
	resistance2 0.00001;
	reactance2 0.00680;
}

object transformer_configuration {
	name "xcon_cimxfmrcode_e103f_d1_19a_bB";
	power_rating 25.000;
	powerA_rating 0.0;
	powerB_rating 25.000;
	powerC_rating 0.0;
	primary_voltage 7200.000;
	secondary_voltage 120.000;
	connect_type SINGLE_PHASE_CENTER_TAPPED;
	install_type POLETOP;
	resistance 0.00001;
	reactance 0.01360;
	resistance1 0.00001;
	reactance1 0.00680;
	resistance2 0.00001;
	reactance2 0.00680;
}

object transformer_configuration {
	name "xcon_cimxfmrcode_e103f_d1_23_bB";
	power_rating 10.000;
	powerA_rating 0.0;
	powerB_rating 10.000;
	powerC_rating 0.0;
	primary_voltage 7200.000;
	secondary_voltage 120.000;
	connect_type SINGLE_PHASE_CENTER_TAPPED;
	install_type POLETOP;
	resistance 0.00001;
	reactance 0.01360;
	resistance1 0.00001;
	reactance1 0.00680;
	resistance2 0.00001;
	reactance2 0.00680;
}

object transformer_configuration {
	name "xcon_cimxfmrcode_e72805203079207_aA";
	power_rating 15.000;
	powerA_rating 15.000;
	powerB_rating 0.0;
	powerC_rating 0.0;
	primary_voltage 7200.000;
	secondary_voltage 120.000;
	connect_type SINGLE_PHASE_CENTER_TAPPED;
	install_type POLETOP;
	resistance 0.00001;
	reactance 0.01360;
	resistance1 0.00001;
	reactance1 0.00680;
	resistance2 0.00001;
	reactance2 0.00680;
}

object transformer_configuration {
	name "xcon_cimxfmrcode_e72805100041705_cC";
	power_rating 10.000;
	powerA_rating 0.0;
	powerB_rating 0.0;
	powerC_rating 10.000;
	primary_voltage 7200.000;
	secondary_voltage 120.000;
	connect_type SINGLE_PHASE_CENTER_TAPPED;
	install_type POLETOP;
	resistance 0.00001;
	reactance 0.01360;
	resistance1 0.00001;
	reactance1 0.00680;
	resistance2 0.00001;
	reactance2 0.00680;
}

object transformer_configuration {
	name "xcon_cimxfmrcode_e72805103095196_aA";
	power_rating 10.000;
	powerA_rating 10.000;
	powerB_rating 0.0;
	powerC_rating 0.0;
	primary_voltage 7200.000;
	secondary_voltage 120.000;
	connect_type SINGLE_PHASE_CENTER_TAPPED;
	install_type POLETOP;
	resistance 0.00001;
	reactance 0.01360;
	resistance1 0.00001;
	reactance1 0.00680;
	resistance2 0.00001;
	reactance2 0.00680;
}

object transformer_configuration {
	name "xcon_cimxfmrcode_e72805003081203_bB";
	power_rating 10.000;
	powerA_rating 0.0;
	powerB_rating 10.000;
	powerC_rating 0.0;
	primary_voltage 7200.000;
	secondary_voltage 120.000;
	connect_type SINGLE_PHASE_CENTER_TAPPED;
	install_type POLETOP;
	resistance 0.00001;
	reactance 0.01360;
	resistance1 0.00001;
	reactance1 0.00680;
	resistance2 0.00001;
	reactance2 0.00680;
}

object transformer_configuration {
	name "xcon_cimxfmrcode_e72805203079570_cC";
	power_rating 10.000;
	powerA_rating 0.0;
	powerB_rating 0.0;
	powerC_rating 10.000;
	primary_voltage 7200.000;
	secondary_voltage 120.000;
	connect_type SINGLE_PHASE_CENTER_TAPPED;
	install_type POLETOP;
	resistance 0.00001;
	reactance 0.01360;
	resistance1 0.00001;
	reactance1 0.00680;
	resistance2 0.00001;
	reactance2 0.00680;
}

object transformer_configuration {
	name "xcon_cimxfmrcode_e72805203080309_cC";
	power_rating 15.000;
	powerA_rating 0.0;
	powerB_rating 0.0;
	powerC_rating 15.000;
	primary_voltage 7200.000;
	secondary_voltage 120.000;
	connect_type SINGLE_PHASE_CENTER_TAPPED;
	install_type POLETOP;
	resistance 0.00001;
	reactance 0.01360;
	resistance1 0.00001;
	reactance1 0.00680;
	resistance2 0.00001;
	reactance2 0.00680;
}

object transformer_configuration {
	name "xcon_cimxfmrcode_e72805103080069_aA";
	power_rating 15.000;
	powerA_rating 15.000;
	powerB_rating 0.0;
	powerC_rating 0.0;
	primary_voltage 7200.000;
	secondary_voltage 120.000;
	connect_type SINGLE_PHASE_CENTER_TAPPED;
	install_type POLETOP;
	resistance 0.00001;
	reactance 0.01360;
	resistance1 0.00001;
	reactance1 0.00680;
	resistance2 0.00001;
	reactance2 0.00680;
}

object transformer_configuration {
	name "xcon_cimxfmrcode_e72805000039763_aA";
	power_rating 10.000;
	powerA_rating 10.000;
	powerB_rating 0.0;
	powerC_rating 0.0;
	primary_voltage 7200.000;
	secondary_voltage 120.000;
	connect_type SINGLE_PHASE_CENTER_TAPPED;
	install_type POLETOP;
	resistance 0.00001;
	reactance 0.01360;
	resistance1 0.00001;
	reactance1 0.00680;
	resistance2 0.00001;
	reactance2 0.00680;
}

object transformer_configuration {
	name "xcon_cimxfmrcode_e72805203079147_aA";
	power_rating 25.000;
	powerA_rating 25.000;
	powerB_rating 0.0;
	powerC_rating 0.0;
	primary_voltage 7200.000;
	secondary_voltage 120.000;
	connect_type SINGLE_PHASE_CENTER_TAPPED;
	install_type POLETOP;
	resistance 0.00001;
	reactance 0.01360;
	resistance1 0.00001;
	reactance1 0.00680;
	resistance2 0.00001;
	reactance2 0.00680;
}

object transformer_configuration {
	name "xcon_cimxfmrcode_e72805003081174_bB";
	power_rating 15.000;
	powerA_rating 0.0;
	powerB_rating 15.000;
	powerC_rating 0.0;
	primary_voltage 7200.000;
	secondary_voltage 120.000;
	connect_type SINGLE_PHASE_CENTER_TAPPED;
	install_type POLETOP;
	resistance 0.00001;
	reactance 0.01360;
	resistance1 0.00001;
	reactance1 0.00680;
	resistance2 0.00001;
	reactance2 0.00680;
}

object transformer_configuration {
	name "xcon_cimxfmrcode_e72805103080322_cC";
	power_rating 10.000;
	powerA_rating 0.0;
	powerB_rating 0.0;
	powerC_rating 10.000;
	primary_voltage 7200.000;
	secondary_voltage 277.000;
	connect_type WYE_WYE;
	resistance 0.000001;
	reactance 0.020000;
	install_type PADMOUNT;
}

object transformer_configuration {
	name "xcon_cimxfmrcode_e72804500062601_aA";
	power_rating 10.000;
	powerA_rating 10.000;
	powerB_rating 0.0;
	powerC_rating 0.0;
	primary_voltage 7200.000;
	secondary_voltage 120.000;
	connect_type SINGLE_PHASE_CENTER_TAPPED;
	install_type POLETOP;
	resistance 0.00001;
	reactance 0.01360;
	resistance1 0.00001;
	reactance1 0.00680;
	resistance2 0.00001;
	reactance2 0.00680;
}

object transformer_configuration {
	name "xcon_cimxfmrcode_e72805200031065_aA";
	power_rating 10.000;
	powerA_rating 10.000;
	powerB_rating 0.0;
	powerC_rating 0.0;
	primary_voltage 7200.000;
	secondary_voltage 120.000;
	connect_type SINGLE_PHASE_CENTER_TAPPED;
	install_type POLETOP;
	resistance 0.00001;
	reactance 0.01360;
	resistance1 0.00001;
	reactance1 0.00680;
	resistance2 0.00001;
	reactance2 0.00680;
}

object transformer_configuration {
	name "xcon_cimxfmrcode_e72805003100926_aA";
	power_rating 25.000;
	powerA_rating 25.000;
	powerB_rating 0.0;
	powerC_rating 0.0;
	primary_voltage 7200.000;
	secondary_voltage 120.000;
	connect_type SINGLE_PHASE_CENTER_TAPPED;
	install_type POLETOP;
	resistance 0.00001;
	reactance 0.01360;
	resistance1 0.00001;
	reactance1 0.00680;
	resistance2 0.00001;
	reactance2 0.00680;
}

object transformer_configuration {
	name "xcon_cimxfmrcode_e72805203079447_cC";
	power_rating 10.000;
	powerA_rating 0.0;
	powerB_rating 0.0;
	powerC_rating 10.000;
	primary_voltage 7200.000;
	secondary_voltage 120.000;
	connect_type SINGLE_PHASE_CENTER_TAPPED;
	install_type POLETOP;
	resistance 0.00001;
	reactance 0.01360;
	resistance1 0.00001;
	reactance1 0.00680;
	resistance2 0.00001;
	reactance2 0.00680;
}

object transformer_configuration {
	name "xcon_cimxfmrcode_e72805203100818_cC";
	power_rating 10.000;
	powerA_rating 0.0;
	powerB_rating 0.0;
	powerC_rating 10.000;
	primary_voltage 7200.000;
	secondary_voltage 120.000;
	connect_type SINGLE_PHASE_CENTER_TAPPED;
	install_type POLETOP;
	resistance 0.00001;
	reactance 0.01360;
	resistance1 0.00001;
	reactance1 0.00680;
	resistance2 0.00001;
	reactance2 0.00680;
}

object transformer_configuration {
	name "xcon_cimxfmrcode_e72805003100654_aA";
	power_rating 10.000;
	powerA_rating 10.000;
	powerB_rating 0.0;
	powerC_rating 0.0;
	primary_voltage 7200.000;
	secondary_voltage 120.000;
	connect_type SINGLE_PHASE_CENTER_TAPPED;
	install_type POLETOP;
	resistance 0.00001;
	reactance 0.01360;
	resistance1 0.00001;
	reactance1 0.00680;
	resistance2 0.00001;
	reactance2 0.00680;
}

object transformer_configuration {
	name "xcon_cimxfmrcode_e72805203079112_aA";
	power_rating 25.000;
	powerA_rating 25.000;
	powerB_rating 0.0;
	powerC_rating 0.0;
	primary_voltage 7200.000;
	secondary_voltage 120.000;
	connect_type SINGLE_PHASE_CENTER_TAPPED;
	install_type POLETOP;
	resistance 0.00001;
	reactance 0.01360;
	resistance1 0.00001;
	reactance1 0.00680;
	resistance2 0.00001;
	reactance2 0.00680;
}

object transformer_configuration {
	name "xcon_cimxfmrcode_e102e_d1_20_aA";
	power_rating 3.000;
	powerA_rating 3.000;
	powerB_rating 0.0;
	powerC_rating 0.0;
	primary_voltage 7200.000;
	secondary_voltage 120.000;
	connect_type SINGLE_PHASE_CENTER_TAPPED;
	install_type POLETOP;
	resistance 0.00001;
	reactance 0.01360;
	resistance1 0.00001;
	reactance1 0.00680;
	resistance2 0.00001;
	reactance2 0.00680;
}

object transformer_configuration {
	name "xcon_cimxfmrcode_e72805203078873_bB";
	power_rating 10.000;
	powerA_rating 0.0;
	powerB_rating 10.000;
	powerC_rating 0.0;
	primary_voltage 7200.000;
	secondary_voltage 120.000;
	connect_type SINGLE_PHASE_CENTER_TAPPED;
	install_type POLETOP;
	resistance 0.00001;
	reactance 0.01360;
	resistance1 0.00001;
	reactance1 0.00680;
	resistance2 0.00001;
	reactance2 0.00680;
}

object transformer_configuration {
	name "xcon_cimxfmrcode_e72805203101831_aA";
	power_rating 10.000;
	powerA_rating 10.000;
	powerB_rating 0.0;
	powerC_rating 0.0;
	primary_voltage 7200.000;
	secondary_voltage 120.000;
	connect_type SINGLE_PHASE_CENTER_TAPPED;
	install_type POLETOP;
	resistance 0.00001;
	reactance 0.01360;
	resistance1 0.00001;
	reactance1 0.00680;
	resistance2 0.00001;
	reactance2 0.00680;
}

object transformer_configuration {
	name "xcon_cimxfmrcode_e72805203095963_cC";
	power_rating 10.000;
	powerA_rating 0.0;
	powerB_rating 0.0;
	powerC_rating 10.000;
	primary_voltage 7200.000;
	secondary_voltage 120.000;
	connect_type SINGLE_PHASE_CENTER_TAPPED;
	install_type POLETOP;
	resistance 0.00001;
	reactance 0.01360;
	resistance1 0.00001;
	reactance1 0.00680;
	resistance2 0.00001;
	reactance2 0.00680;
}

object transformer_configuration {
	name "xcon_cimxfmrcode_e72804503093033_bB";
	power_rating 10.000;
	powerA_rating 0.0;
	powerB_rating 10.000;
	powerC_rating 0.0;
	primary_voltage 7200.000;
	secondary_voltage 120.000;
	connect_type SINGLE_PHASE_CENTER_TAPPED;
	install_type POLETOP;
	resistance 0.00001;
	reactance 0.01360;
	resistance1 0.00001;
	reactance1 0.00680;
	resistance2 0.00001;
	reactance2 0.00680;
}

object transformer_configuration {
	name "xcon_cimxfmrcode_e72805203079085_bB";
	power_rating 15.000;
	powerA_rating 0.0;
	powerB_rating 15.000;
	powerC_rating 0.0;
	primary_voltage 7200.000;
	secondary_voltage 120.000;
	connect_type SINGLE_PHASE_CENTER_TAPPED;
	install_type POLETOP;
	resistance 0.00001;
	reactance 0.01360;
	resistance1 0.00001;
	reactance1 0.00680;
	resistance2 0.00001;
	reactance2 0.00680;
}

object transformer_configuration {
	name "xcon_cimxfmrcode_e101c1_d1_21a_aA";
	power_rating 15.000;
	powerA_rating 15.000;
	powerB_rating 0.0;
	powerC_rating 0.0;
	primary_voltage 7200.000;
	secondary_voltage 120.000;
	connect_type SINGLE_PHASE_CENTER_TAPPED;
	install_type POLETOP;
	resistance 0.00001;
	reactance 0.01360;
	resistance1 0.00001;
	reactance1 0.00680;
...